Circuit: * C:\amp_ab\haruna_ab_tb.asc

Direct Newton iteration failed to find .op point.  (Use ".option noopiter" to skip.)
Starting Gmin stepping
Gmin = 10
Gmin = 1.07374
Gmin = 0.115292
Gmin = 0.0123794
Gmin = 0.00132923
Gmin = 0.000142725
Gmin = 1.5325e-005
vernier = 0.5
vernier = 0.666667
Gmin = 4.99842e-006
vernier = 0.888888
Gmin = 8.09366e-007
vernier = 1
Gmin = 8.6905e-008
Gmin = 9.33136e-009
Gmin = 1.00195e-009
Gmin = 1.07583e-010
Gmin = 1.15517e-011
Gmin = 1.24035e-012
Gmin = 1.33182e-013
Gmin = 0
Gmin stepping succeeded in finding the operating point.


a: MAX(v(n003))=1.19541 FROM 0 TO 0.03


Date: Thu Jan 14 13:10:23 2021
Total elapsed time: 0.942 seconds.

tnom = 27
temp = 27
method = modified trap
totiter = 13186
traniter = 12626
tranpoints = 5002
accept = 3648
rejected = 1354
matrix size = 29
fillins = 18
solver = Normal
Thread vector: 18.3/11.0[2] 9.4/4.7[2] 1.5/3.7[1] 0.2/1.3[1]  2592/500
Matrix Compiler1: 4.29 KB object code size  1.7/1.2/[0.6]
Matrix Compiler2: 3.46 KB object code size  0.5/0.5/[0.4]

