Circuit: * Z:\home\seijirom\work\2021_9\ABamp\haruna_ab_tb_.asc

Direct Newton iteration failed to find .op point.  (Use ".option noopiter" to skip.)
Starting Gmin stepping
Gmin = 10
Gmin = 1.07374
Gmin = 0.115292
Gmin = 0.0123794
Gmin = 0.00132923
Gmin = 0.000142725
Gmin = 1.5325e-005
Gmin = 1.6455e-006
Gmin = 1.76685e-007
Gmin = 1.89714e-008
Gmin = 2.03704e-009
Gmin = 2.18725e-010
Gmin = 2.34854e-011
Gmin = 2.52173e-012
Gmin = 2.70769e-013
Gmin = 0
Gmin stepping succeeded in finding the operating point.


a: MAX(v(n003))=1.19515 FROM 0 TO 0.03


Date: Thu Sep 02 00:10:12 2021
Total elapsed time: 3.318 seconds.

tnom = 27
temp = 27
method = modified trap
totiter = 60170
traniter = 59638
tranpoints = 27676
accept = 18553
rejected = 9123
matrix size = 22
fillins = 16
solver = Normal
Thread vector: 43.3/26.8[2] 6.0/4.5[2] 2.3/2.7[1] 0.5/18.8[1]  2592/500
Matrix Compiler1: 2.87 KB object code size  0.9/0.5/[0.3]
Matrix Compiler2: 2.46 KB object code size  1.9/1.0/[0.5]

