Circuit: * C:\amp_ab\haruna_ab_tb_.asc

Direct Newton iteration failed to find .op point.  (Use ".option noopiter" to skip.)
Starting Gmin stepping
Gmin = 10
Gmin = 1.07374
Gmin = 0.115292
Gmin = 0.0123794
Gmin = 0.00132923
Gmin = 0.000142725
Gmin = 1.5325e-005
Gmin = 1.6455e-006
Gmin = 1.76685e-007
Gmin = 1.89714e-008
Gmin = 2.03704e-009
Gmin = 2.18725e-010
Gmin = 2.34854e-011
Gmin = 2.52173e-012
Gmin = 2.70769e-013
Gmin = 0
Gmin stepping succeeded in finding the operating point.


a: MAX(v(n003))=1.1952 FROM 0 TO 0.03


Date: Thu Jan 14 13:11:23 2021
Total elapsed time: 1.490 seconds.

tnom = 27
temp = 27
method = modified trap
totiter = 60008
traniter = 59476
tranpoints = 27630
accept = 18511
rejected = 9119
matrix size = 22
fillins = 16
solver = Normal
Thread vector: 13.9/8.5[2] 2.8/2.3[2] 1.3/1.9[1] 0.2/1.0[1]  2592/500
Matrix Compiler1: 2.87 KB object code size  0.6/0.3/[0.2]
Matrix Compiler2: 2.46 KB object code size  0.3/0.4/[0.3]

